Version 4
SHEET 1 880 680
WIRE 240 -48 240 -96
WIRE 704 -48 240 -48
WIRE 240 -16 240 -48
WIRE 480 -16 240 -16
WIRE 704 -16 704 -48
WIRE -224 0 -320 0
WIRE -48 0 -160 0
WIRE 240 0 240 -16
WIRE -48 16 -48 0
WIRE -48 16 -96 16
WIRE -48 32 -48 16
WIRE 480 32 480 -16
WIRE 144 80 96 80
WIRE 192 80 144 80
WIRE 144 96 144 80
WIRE -576 112 -576 0
WIRE -320 112 -320 0
WIRE -320 112 -576 112
WIRE -256 112 -320 112
WIRE -96 112 -96 16
WIRE -96 112 -128 112
WIRE -656 144 -912 144
WIRE -608 144 -656 144
WIRE -256 144 -608 144
WIRE 16 144 16 80
WIRE 16 144 -128 144
WIRE 240 144 240 96
WIRE 480 144 480 96
WIRE 480 144 240 144
WIRE -256 176 -512 176
WIRE -128 176 -144 176
WIRE -48 176 -48 96
WIRE -48 176 -128 176
WIRE 48 176 -48 176
WIRE -912 192 -912 144
WIRE -320 208 -320 112
WIRE -48 208 -128 208
WIRE 48 208 48 176
WIRE 144 208 144 176
WIRE 144 208 48 208
WIRE 240 208 240 144
WIRE 240 208 144 208
WIRE 704 208 704 64
WIRE 704 208 240 208
WIRE 752 208 704 208
WIRE -256 224 -256 208
WIRE -256 224 -272 224
WIRE 704 224 704 208
WIRE -608 240 -608 224
WIRE 240 240 240 208
WIRE 480 240 240 240
WIRE 240 256 240 240
WIRE -672 272 -768 272
WIRE -608 272 -672 272
WIRE -512 272 -512 176
WIRE -512 272 -608 272
WIRE 480 272 480 240
WIRE -320 288 -320 272
WIRE -304 288 -320 288
WIRE -272 288 -272 224
WIRE -272 288 -304 288
WIRE -768 304 -768 272
WIRE -48 336 -48 208
WIRE -16 336 -48 336
WIRE 32 336 -16 336
WIRE 144 336 112 336
WIRE 192 336 144 336
WIRE 144 352 144 336
WIRE -608 384 -608 352
WIRE -304 384 -304 288
WIRE 240 384 240 352
WIRE 480 384 480 336
WIRE 480 384 240 384
WIRE 240 432 240 384
WIRE 704 432 704 304
WIRE 704 432 240 432
WIRE 144 464 144 432
WIRE 240 464 240 432
WIRE 240 464 144 464
WIRE 240 480 240 464
FLAG 240 480 0
FLAG 240 -96 VCC
FLAG -176 -80 0
FLAG -176 -160 VCC
FLAG -288 -80 0
FLAG -288 -160 VC2
FLAG -768 384 0
FLAG -912 272 0
FLAG 752 208 out
FLAG -304 384 0
FLAG -576 0 VC2
FLAG -608 384 0
FLAG -608 240 0
FLAG -16 336 LO
FLAG 16 144 HO
FLAG -656 144 V4
FLAG -672 272 V3
SYMBOL voltage -176 -176 R0
SYMATTR InstName V1
SYMATTR Value 36
SYMBOL AutoGenerated\\IR2101 -192 160 R0
SYMATTR InstName U1
SYMBOL voltage -288 -176 R0
WINDOW 123 0 0 Left 0
WINDOW 39 24 44 Left 2
SYMATTR InstName V2
SYMATTR Value 12
SYMBOL voltage -768 288 R0
WINDOW 3 -273 99 Left 2
WINDOW 123 0 0 Left 0
WINDOW 39 0 0 Left 0
SYMATTR Value PULSE(0 3.3 0 0.1n 0.1n 1m 3m)
SYMATTR InstName V3
SYMBOL voltage -912 176 R0
WINDOW 3 -315 101 Left 2
WINDOW 123 0 0 Left 0
WINDOW 39 0 0 Left 0
SYMATTR Value PULSE(0 3.3 1.5m 0.1n 0.1n 1m 3m)
SYMATTR InstName V4
SYMBOL cap -64 32 R0
SYMATTR InstName C1
SYMATTR Value 1µ
SYMBOL diode -224 16 R270
WINDOW 0 32 32 VTop 2
WINDOW 3 0 32 VBottom 2
SYMATTR InstName D1
SYMATTR Value 1N914
SYMBOL nmos 192 0 R0
SYMATTR InstName M3
SYMATTR Value BSB012N03LX3
SYMBOL nmos 192 256 R0
WINDOW 3 55 59 Left 2
SYMATTR InstName M4
SYMATTR Value BSB012N03LX3
SYMBOL res 112 64 R90
WINDOW 0 0 56 VBottom 2
WINDOW 3 32 56 VTop 2
SYMATTR InstName R1
SYMATTR Value 10
SYMBOL res 128 320 R90
WINDOW 0 0 56 VBottom 2
WINDOW 3 32 56 VTop 2
SYMATTR InstName R2
SYMATTR Value 10
SYMBOL res 688 -32 R0
SYMATTR InstName R3
SYMATTR Value 1k
SYMBOL res 688 208 R0
SYMATTR InstName R4
SYMATTR Value 1k
SYMBOL res -624 128 R0
SYMATTR InstName R5
SYMATTR Value 10
SYMBOL res -624 256 R0
SYMATTR InstName R6
SYMATTR Value 10
SYMBOL cap -336 208 R0
SYMATTR InstName C2
SYMATTR Value 100n
SYMBOL res 128 80 R0
SYMATTR InstName R7
SYMATTR Value 1Meg
SYMBOL res 128 336 R0
SYMATTR InstName R8
SYMATTR Value 1Meg
SYMBOL schottky 496 96 R180
WINDOW 0 24 64 Left 2
WINDOW 3 24 0 Left 2
SYMATTR InstName D2
SYMATTR Value 1N5819
SYMATTR Description Diode
SYMATTR Type diode
SYMBOL schottky 496 336 R180
WINDOW 0 24 64 Left 2
WINDOW 3 24 0 Left 2
SYMATTR InstName D3
SYMATTR Value 1N5819
SYMATTR Description Diode
SYMATTR Type diode
TEXT -640 408 Left 2 !.tran 0 10m 0
